/*---------------------------------------------------------------------------*\
| =========                 |                                                 |
| \\      /  F ield         | OpenFOAM: The Open Source CFD Toolbox           |
|  \\    /   O peration     | Version:  v2106                                 |
|   \\  /    A nd           | Website:  www.openfoam.com                      |
|    \\/     M anipulation  |                                                 |
\*---------------------------------------------------------------------------*/
Build  : _c15bfde3cb-20210624 OPENFOAM=2106
Arch   : "LSB;label=32;scalar=64"
Exec   : ./../laplacianFoam/laplacianFoam_customized
Date   : Jun 24 2025
Time   : 14:49:00
Host   : mirzakhani.maths.sissa.it
PID    : 2550299
I/O    : uncollated
Case   : /scratch/mgirfogl/MACFD2025_temp/cavity
nProcs : 1
trapFpe: Floating point exception trapping enabled (FOAM_SIGFPE).
fileModificationChecking : Monitoring run-time modified files using timeStampMaster (fileModificationSkew 5, maxFileModificationPolls 20)
allowSystemOperations : Allowing user-supplied system call operations

// * * * * * * * * * * * * * * * * * * * * * * * * * * * * * * * * * * * * * //
Create time

Create mesh for time = 0


SIMPLE: no convergence criteria found. Calculations will run for 1 steps.

Reading field T

Reading diffusivity DT

No finite volume options present

Calculating temperature distribution

Time = 0.005

smoothSolver:  Solving for T, Initial residual = 1, Final residual = 2.94648e-08, No Iterations 2
ExecutionTime = 0 s  ClockTime = 0 s

Time = 0.01

smoothSolver:  Solving for T, Initial residual = 0.21589, Final residual = 6.81775e-09, No Iterations 2
ExecutionTime = 0 s  ClockTime = 0 s

Time = 0.015

smoothSolver:  Solving for T, Initial residual = 0.120139, Final residual = 4.04821e-09, No Iterations 2
ExecutionTime = 0 s  ClockTime = 0 s

Time = 0.02

smoothSolver:  Solving for T, Initial residual = 0.082836, Final residual = 7.99551e-06, No Iterations 1
ExecutionTime = 0 s  ClockTime = 0 s

Time = 0.025

smoothSolver:  Solving for T, Initial residual = 0.0629985, Final residual = 6.43552e-06, No Iterations 1
ExecutionTime = 0 s  ClockTime = 0 s

Time = 0.03

smoothSolver:  Solving for T, Initial residual = 0.0506982, Final residual = 5.46355e-06, No Iterations 1
ExecutionTime = 0 s  ClockTime = 0 s

Time = 0.035

smoothSolver:  Solving for T, Initial residual = 0.0423333, Final residual = 4.79865e-06, No Iterations 1
ExecutionTime = 0 s  ClockTime = 0 s

Time = 0.04

smoothSolver:  Solving for T, Initial residual = 0.0361636, Final residual = 4.30026e-06, No Iterations 1
ExecutionTime = 0 s  ClockTime = 0 s

Time = 0.045

smoothSolver:  Solving for T, Initial residual = 0.0314891, Final residual = 3.91826e-06, No Iterations 1
ExecutionTime = 0 s  ClockTime = 0 s

Time = 0.05

smoothSolver:  Solving for T, Initial residual = 0.0277405, Final residual = 3.60379e-06, No Iterations 1
ExecutionTime = 0 s  ClockTime = 0 s

Time = 0.055

smoothSolver:  Solving for T, Initial residual = 0.0247303, Final residual = 3.34705e-06, No Iterations 1
ExecutionTime = 0 s  ClockTime = 0 s

Time = 0.06

smoothSolver:  Solving for T, Initial residual = 0.022267, Final residual = 3.13342e-06, No Iterations 1
ExecutionTime = 0 s  ClockTime = 0 s

Time = 0.065

smoothSolver:  Solving for T, Initial residual = 0.0202168, Final residual = 2.95248e-06, No Iterations 1
ExecutionTime = 0 s  ClockTime = 0 s

Time = 0.07

smoothSolver:  Solving for T, Initial residual = 0.018486, Final residual = 2.79693e-06, No Iterations 1
ExecutionTime = 0 s  ClockTime = 0 s

Time = 0.075

smoothSolver:  Solving for T, Initial residual = 0.0170072, Final residual = 2.66148e-06, No Iterations 1
ExecutionTime = 0 s  ClockTime = 0 s

Time = 0.08

smoothSolver:  Solving for T, Initial residual = 0.0157306, Final residual = 2.54227e-06, No Iterations 1
ExecutionTime = 0 s  ClockTime = 0 s

Time = 0.085

smoothSolver:  Solving for T, Initial residual = 0.0146188, Final residual = 2.43636e-06, No Iterations 1
ExecutionTime = 0 s  ClockTime = 0 s

Time = 0.09

smoothSolver:  Solving for T, Initial residual = 0.0136428, Final residual = 2.34148e-06, No Iterations 1
ExecutionTime = 0 s  ClockTime = 0 s

Time = 0.095

smoothSolver:  Solving for T, Initial residual = 0.0127801, Final residual = 2.25587e-06, No Iterations 1
ExecutionTime = 0 s  ClockTime = 0 s

Time = 0.1

smoothSolver:  Solving for T, Initial residual = 0.0120128, Final residual = 2.17814e-06, No Iterations 1
ExecutionTime = 0 s  ClockTime = 0 s

Time = 0.105

smoothSolver:  Solving for T, Initial residual = 0.0113267, Final residual = 2.10715e-06, No Iterations 1
ExecutionTime = 0 s  ClockTime = 0 s

Time = 0.11

smoothSolver:  Solving for T, Initial residual = 0.01071, Final residual = 2.04198e-06, No Iterations 1
ExecutionTime = 0 s  ClockTime = 0 s

Time = 0.115

smoothSolver:  Solving for T, Initial residual = 0.0101533, Final residual = 1.98189e-06, No Iterations 1
ExecutionTime = 0 s  ClockTime = 0 s

Time = 0.12

smoothSolver:  Solving for T, Initial residual = 0.0096486, Final residual = 1.92626e-06, No Iterations 1
ExecutionTime = 0 s  ClockTime = 0 s

Time = 0.125

smoothSolver:  Solving for T, Initial residual = 0.00918938, Final residual = 1.87455e-06, No Iterations 1
ExecutionTime = 0 s  ClockTime = 0 s

Time = 0.13

smoothSolver:  Solving for T, Initial residual = 0.00877008, Final residual = 1.82633e-06, No Iterations 1
ExecutionTime = 0 s  ClockTime = 0 s

Time = 0.135

smoothSolver:  Solving for T, Initial residual = 0.008386, Final residual = 1.78122e-06, No Iterations 1
ExecutionTime = 0 s  ClockTime = 0 s

Time = 0.14

smoothSolver:  Solving for T, Initial residual = 0.00803314, Final residual = 1.73891e-06, No Iterations 1
ExecutionTime = 0 s  ClockTime = 0 s

Time = 0.145

smoothSolver:  Solving for T, Initial residual = 0.00770807, Final residual = 1.69911e-06, No Iterations 1
ExecutionTime = 0 s  ClockTime = 0 s

Time = 0.15

smoothSolver:  Solving for T, Initial residual = 0.00740783, Final residual = 1.66159e-06, No Iterations 1
ExecutionTime = 0 s  ClockTime = 0 s

Time = 0.155

smoothSolver:  Solving for T, Initial residual = 0.00712986, Final residual = 1.62614e-06, No Iterations 1
ExecutionTime = 0 s  ClockTime = 0 s

Time = 0.16

smoothSolver:  Solving for T, Initial residual = 0.00687192, Final residual = 1.59257e-06, No Iterations 1
ExecutionTime = 0 s  ClockTime = 0 s

Time = 0.165

smoothSolver:  Solving for T, Initial residual = 0.00663205, Final residual = 1.56073e-06, No Iterations 1
ExecutionTime = 0 s  ClockTime = 0 s

Time = 0.17

smoothSolver:  Solving for T, Initial residual = 0.00640855, Final residual = 1.53048e-06, No Iterations 1
ExecutionTime = 0 s  ClockTime = 0 s

Time = 0.175

smoothSolver:  Solving for T, Initial residual = 0.00619991, Final residual = 1.50168e-06, No Iterations 1
ExecutionTime = 0 s  ClockTime = 0 s

Time = 0.18

smoothSolver:  Solving for T, Initial residual = 0.00600478, Final residual = 1.47423e-06, No Iterations 1
ExecutionTime = 0 s  ClockTime = 0 s

Time = 0.185

smoothSolver:  Solving for T, Initial residual = 0.00582199, Final residual = 1.44803e-06, No Iterations 1
ExecutionTime = 0 s  ClockTime = 0 s

Time = 0.19

smoothSolver:  Solving for T, Initial residual = 0.00565046, Final residual = 1.42299e-06, No Iterations 1
ExecutionTime = 0 s  ClockTime = 0 s

Time = 0.195

smoothSolver:  Solving for T, Initial residual = 0.00548926, Final residual = 1.39902e-06, No Iterations 1
ExecutionTime = 0 s  ClockTime = 0 s

Time = 0.2

smoothSolver:  Solving for T, Initial residual = 0.00533755, Final residual = 1.37606e-06, No Iterations 1
ExecutionTime = 0 s  ClockTime = 0 s

Time = 0.205

smoothSolver:  Solving for T, Initial residual = 0.00519456, Final residual = 1.35403e-06, No Iterations 1
ExecutionTime = 0 s  ClockTime = 0 s

Time = 0.21

smoothSolver:  Solving for T, Initial residual = 0.0050596, Final residual = 1.33288e-06, No Iterations 1
ExecutionTime = 0 s  ClockTime = 0 s

Time = 0.215

smoothSolver:  Solving for T, Initial residual = 0.00493207, Final residual = 1.31256e-06, No Iterations 1
ExecutionTime = 0 s  ClockTime = 0 s

Time = 0.22

smoothSolver:  Solving for T, Initial residual = 0.0048114, Final residual = 1.29301e-06, No Iterations 1
ExecutionTime = 0 s  ClockTime = 0 s

Time = 0.225

smoothSolver:  Solving for T, Initial residual = 0.00469709, Final residual = 1.27418e-06, No Iterations 1
ExecutionTime = 0 s  ClockTime = 0 s

Time = 0.23

smoothSolver:  Solving for T, Initial residual = 0.00458629, Final residual = 1.25539e-06, No Iterations 1
ExecutionTime = 0 s  ClockTime = 0 s

Time = 0.235

smoothSolver:  Solving for T, Initial residual = 0.00447907, Final residual = 1.2367e-06, No Iterations 1
ExecutionTime = 0 s  ClockTime = 0 s

Time = 0.24

smoothSolver:  Solving for T, Initial residual = 0.00437349, Final residual = 1.21765e-06, No Iterations 1
ExecutionTime = 0 s  ClockTime = 0 s

Time = 0.245

smoothSolver:  Solving for T, Initial residual = 0.00427302, Final residual = 1.19924e-06, No Iterations 1
ExecutionTime = 0 s  ClockTime = 0 s

Time = 0.25

smoothSolver:  Solving for T, Initial residual = 0.00417731, Final residual = 1.18144e-06, No Iterations 1
ExecutionTime = 0 s  ClockTime = 0 s

Time = 0.255

smoothSolver:  Solving for T, Initial residual = 0.00408605, Final residual = 1.16422e-06, No Iterations 1
ExecutionTime = 0 s  ClockTime = 0 s

Time = 0.26

smoothSolver:  Solving for T, Initial residual = 0.00399895, Final residual = 1.14755e-06, No Iterations 1
ExecutionTime = 0 s  ClockTime = 0 s

Time = 0.265

smoothSolver:  Solving for T, Initial residual = 0.0039149, Final residual = 1.13116e-06, No Iterations 1
ExecutionTime = 0 s  ClockTime = 0 s

Time = 0.27

smoothSolver:  Solving for T, Initial residual = 0.00383457, Final residual = 1.11529e-06, No Iterations 1
ExecutionTime = 0 s  ClockTime = 0 s

Time = 0.275

smoothSolver:  Solving for T, Initial residual = 0.00375753, Final residual = 1.09985e-06, No Iterations 1
ExecutionTime = 0 s  ClockTime = 0 s

Time = 0.28

smoothSolver:  Solving for T, Initial residual = 0.0036832, Final residual = 1.08472e-06, No Iterations 1
ExecutionTime = 0 s  ClockTime = 0 s

Time = 0.285

smoothSolver:  Solving for T, Initial residual = 0.00361201, Final residual = 1.07004e-06, No Iterations 1
ExecutionTime = 0 s  ClockTime = 0 s

Time = 0.29

smoothSolver:  Solving for T, Initial residual = 0.00354378, Final residual = 1.05581e-06, No Iterations 1
ExecutionTime = 0 s  ClockTime = 0 s

Time = 0.295

smoothSolver:  Solving for T, Initial residual = 0.00347834, Final residual = 1.04201e-06, No Iterations 1
ExecutionTime = 0 s  ClockTime = 0 s

Time = 0.3

smoothSolver:  Solving for T, Initial residual = 0.00341552, Final residual = 1.02861e-06, No Iterations 1
ExecutionTime = 0 s  ClockTime = 0 s

Time = 0.305

smoothSolver:  Solving for T, Initial residual = 0.00335518, Final residual = 1.01559e-06, No Iterations 1
ExecutionTime = 0 s  ClockTime = 0 s

Time = 0.31

smoothSolver:  Solving for T, Initial residual = 0.00329719, Final residual = 1.00295e-06, No Iterations 1
ExecutionTime = 0 s  ClockTime = 0 s

Time = 0.315

smoothSolver:  Solving for T, Initial residual = 0.0032414, Final residual = 9.90669e-07, No Iterations 1
ExecutionTime = 0 s  ClockTime = 0 s

Time = 0.32

smoothSolver:  Solving for T, Initial residual = 0.00318771, Final residual = 9.78728e-07, No Iterations 1
ExecutionTime = 0 s  ClockTime = 0 s

Time = 0.325

smoothSolver:  Solving for T, Initial residual = 0.003136, Final residual = 9.67115e-07, No Iterations 1
ExecutionTime = 0 s  ClockTime = 0 s

Time = 0.33

smoothSolver:  Solving for T, Initial residual = 0.00308618, Final residual = 9.55817e-07, No Iterations 1
ExecutionTime = 0 s  ClockTime = 0 s

Time = 0.335

smoothSolver:  Solving for T, Initial residual = 0.00303813, Final residual = 9.44822e-07, No Iterations 1
ExecutionTime = 0 s  ClockTime = 0 s

Time = 0.34

smoothSolver:  Solving for T, Initial residual = 0.00299178, Final residual = 9.34119e-07, No Iterations 1
ExecutionTime = 0 s  ClockTime = 0 s

Time = 0.345

smoothSolver:  Solving for T, Initial residual = 0.00294703, Final residual = 9.23696e-07, No Iterations 1
ExecutionTime = 0 s  ClockTime = 0 s

Time = 0.35

smoothSolver:  Solving for T, Initial residual = 0.00290381, Final residual = 9.13543e-07, No Iterations 1
ExecutionTime = 0 s  ClockTime = 0 s

Time = 0.355

smoothSolver:  Solving for T, Initial residual = 0.00286204, Final residual = 9.03649e-07, No Iterations 1
ExecutionTime = 0 s  ClockTime = 0 s

Time = 0.36

smoothSolver:  Solving for T, Initial residual = 0.00282165, Final residual = 8.94006e-07, No Iterations 1
ExecutionTime = 0 s  ClockTime = 0 s

Time = 0.365

smoothSolver:  Solving for T, Initial residual = 0.00278258, Final residual = 8.84604e-07, No Iterations 1
ExecutionTime = 0 s  ClockTime = 0 s

Time = 0.37

smoothSolver:  Solving for T, Initial residual = 0.00274477, Final residual = 8.75435e-07, No Iterations 1
ExecutionTime = 0.01 s  ClockTime = 0 s

Time = 0.375

smoothSolver:  Solving for T, Initial residual = 0.00270815, Final residual = 8.6649e-07, No Iterations 1
ExecutionTime = 0.01 s  ClockTime = 0 s

Time = 0.38

smoothSolver:  Solving for T, Initial residual = 0.00267267, Final residual = 8.57761e-07, No Iterations 1
ExecutionTime = 0.01 s  ClockTime = 0 s

Time = 0.385

smoothSolver:  Solving for T, Initial residual = 0.00263829, Final residual = 8.49241e-07, No Iterations 1
ExecutionTime = 0.01 s  ClockTime = 0 s

Time = 0.39

smoothSolver:  Solving for T, Initial residual = 0.00260495, Final residual = 8.40923e-07, No Iterations 1
ExecutionTime = 0.01 s  ClockTime = 0 s

Time = 0.395

smoothSolver:  Solving for T, Initial residual = 0.0025726, Final residual = 8.328e-07, No Iterations 1
ExecutionTime = 0.01 s  ClockTime = 0 s

Time = 0.4

smoothSolver:  Solving for T, Initial residual = 0.00254121, Final residual = 8.24865e-07, No Iterations 1
ExecutionTime = 0.01 s  ClockTime = 0 s

Time = 0.405

smoothSolver:  Solving for T, Initial residual = 0.00251073, Final residual = 8.17113e-07, No Iterations 1
ExecutionTime = 0.01 s  ClockTime = 0 s

Time = 0.41

smoothSolver:  Solving for T, Initial residual = 0.00248112, Final residual = 8.09536e-07, No Iterations 1
ExecutionTime = 0.01 s  ClockTime = 0 s

Time = 0.415

smoothSolver:  Solving for T, Initial residual = 0.00245235, Final residual = 8.0213e-07, No Iterations 1
ExecutionTime = 0.01 s  ClockTime = 0 s

Time = 0.42

smoothSolver:  Solving for T, Initial residual = 0.00242438, Final residual = 7.94889e-07, No Iterations 1
ExecutionTime = 0.01 s  ClockTime = 0 s

Time = 0.425

smoothSolver:  Solving for T, Initial residual = 0.00239719, Final residual = 7.87807e-07, No Iterations 1
ExecutionTime = 0.01 s  ClockTime = 0 s

Time = 0.43

smoothSolver:  Solving for T, Initial residual = 0.00237073, Final residual = 7.8088e-07, No Iterations 1
ExecutionTime = 0.01 s  ClockTime = 0 s

Time = 0.435

smoothSolver:  Solving for T, Initial residual = 0.00234498, Final residual = 7.74102e-07, No Iterations 1
ExecutionTime = 0.01 s  ClockTime = 0 s

Time = 0.44

smoothSolver:  Solving for T, Initial residual = 0.00231991, Final residual = 7.6747e-07, No Iterations 1
ExecutionTime = 0.01 s  ClockTime = 0 s

Time = 0.445

smoothSolver:  Solving for T, Initial residual = 0.0022955, Final residual = 7.60978e-07, No Iterations 1
ExecutionTime = 0.01 s  ClockTime = 0 s

Time = 0.45

smoothSolver:  Solving for T, Initial residual = 0.00227172, Final residual = 7.54622e-07, No Iterations 1
ExecutionTime = 0.01 s  ClockTime = 0 s

Time = 0.455

smoothSolver:  Solving for T, Initial residual = 0.00224855, Final residual = 7.48399e-07, No Iterations 1
ExecutionTime = 0.01 s  ClockTime = 0 s

Time = 0.46

smoothSolver:  Solving for T, Initial residual = 0.00222595, Final residual = 7.42303e-07, No Iterations 1
ExecutionTime = 0.01 s  ClockTime = 0 s

Time = 0.465

smoothSolver:  Solving for T, Initial residual = 0.00220392, Final residual = 7.36333e-07, No Iterations 1
ExecutionTime = 0.01 s  ClockTime = 0 s

Time = 0.47

smoothSolver:  Solving for T, Initial residual = 0.00218243, Final residual = 7.30482e-07, No Iterations 1
ExecutionTime = 0.01 s  ClockTime = 0 s

Time = 0.475

smoothSolver:  Solving for T, Initial residual = 0.00216147, Final residual = 7.24749e-07, No Iterations 1
ExecutionTime = 0.01 s  ClockTime = 0 s

Time = 0.48

smoothSolver:  Solving for T, Initial residual = 0.002141, Final residual = 7.1913e-07, No Iterations 1
ExecutionTime = 0.01 s  ClockTime = 0 s

Time = 0.485

smoothSolver:  Solving for T, Initial residual = 0.00212102, Final residual = 7.13621e-07, No Iterations 1
ExecutionTime = 0.01 s  ClockTime = 0 s

Time = 0.49

smoothSolver:  Solving for T, Initial residual = 0.00210151, Final residual = 7.0822e-07, No Iterations 1
ExecutionTime = 0.01 s  ClockTime = 0 s

Time = 0.495

smoothSolver:  Solving for T, Initial residual = 0.00208245, Final residual = 7.02923e-07, No Iterations 1
ExecutionTime = 0.01 s  ClockTime = 0 s

Time = 0.5

smoothSolver:  Solving for T, Initial residual = 0.00206382, Final residual = 6.97727e-07, No Iterations 1
ExecutionTime = 0.01 s  ClockTime = 0 s

Time = 0.505

smoothSolver:  Solving for T, Initial residual = 0.00204562, Final residual = 6.9263e-07, No Iterations 1
ExecutionTime = 0.01 s  ClockTime = 0 s

Time = 0.51

smoothSolver:  Solving for T, Initial residual = 0.00202782, Final residual = 6.87629e-07, No Iterations 1
ExecutionTime = 0.01 s  ClockTime = 0 s

Time = 0.515

smoothSolver:  Solving for T, Initial residual = 0.00201042, Final residual = 6.82721e-07, No Iterations 1
ExecutionTime = 0.01 s  ClockTime = 0 s

Time = 0.52

smoothSolver:  Solving for T, Initial residual = 0.0019934, Final residual = 6.77904e-07, No Iterations 1
ExecutionTime = 0.01 s  ClockTime = 0 s

Time = 0.525

smoothSolver:  Solving for T, Initial residual = 0.00197674, Final residual = 6.73175e-07, No Iterations 1
ExecutionTime = 0.01 s  ClockTime = 0 s

Time = 0.53

smoothSolver:  Solving for T, Initial residual = 0.00196045, Final residual = 6.68532e-07, No Iterations 1
ExecutionTime = 0.01 s  ClockTime = 0 s

Time = 0.535

smoothSolver:  Solving for T, Initial residual = 0.0019445, Final residual = 6.63973e-07, No Iterations 1
ExecutionTime = 0.01 s  ClockTime = 0 s

Time = 0.54

smoothSolver:  Solving for T, Initial residual = 0.00192888, Final residual = 6.59495e-07, No Iterations 1
ExecutionTime = 0.01 s  ClockTime = 0 s

Time = 0.545

smoothSolver:  Solving for T, Initial residual = 0.00191358, Final residual = 6.55096e-07, No Iterations 1
ExecutionTime = 0.01 s  ClockTime = 0 s

Time = 0.55

smoothSolver:  Solving for T, Initial residual = 0.0018986, Final residual = 6.50775e-07, No Iterations 1
ExecutionTime = 0.01 s  ClockTime = 0 s

Time = 0.555

smoothSolver:  Solving for T, Initial residual = 0.00188393, Final residual = 6.46529e-07, No Iterations 1
ExecutionTime = 0.01 s  ClockTime = 0 s

Time = 0.56

smoothSolver:  Solving for T, Initial residual = 0.00186955, Final residual = 6.42357e-07, No Iterations 1
ExecutionTime = 0.01 s  ClockTime = 0 s

Time = 0.565

smoothSolver:  Solving for T, Initial residual = 0.00185545, Final residual = 6.38256e-07, No Iterations 1
ExecutionTime = 0.01 s  ClockTime = 0 s

Time = 0.57

smoothSolver:  Solving for T, Initial residual = 0.00184164, Final residual = 6.34224e-07, No Iterations 1
ExecutionTime = 0.01 s  ClockTime = 0 s

Time = 0.575

smoothSolver:  Solving for T, Initial residual = 0.00182809, Final residual = 6.30261e-07, No Iterations 1
ExecutionTime = 0.01 s  ClockTime = 0 s

Time = 0.58

smoothSolver:  Solving for T, Initial residual = 0.0018148, Final residual = 6.26364e-07, No Iterations 1
ExecutionTime = 0.01 s  ClockTime = 0 s

Time = 0.585

smoothSolver:  Solving for T, Initial residual = 0.00180177, Final residual = 6.22532e-07, No Iterations 1
ExecutionTime = 0.01 s  ClockTime = 0 s

Time = 0.59

smoothSolver:  Solving for T, Initial residual = 0.00178898, Final residual = 6.18762e-07, No Iterations 1
ExecutionTime = 0.01 s  ClockTime = 0 s

Time = 0.595

smoothSolver:  Solving for T, Initial residual = 0.00177644, Final residual = 6.15055e-07, No Iterations 1
ExecutionTime = 0.01 s  ClockTime = 0 s

Time = 0.6

smoothSolver:  Solving for T, Initial residual = 0.00176412, Final residual = 6.11407e-07, No Iterations 1
ExecutionTime = 0.01 s  ClockTime = 0 s

Time = 0.605

smoothSolver:  Solving for T, Initial residual = 0.00175199, Final residual = 6.07801e-07, No Iterations 1
ExecutionTime = 0.01 s  ClockTime = 0 s

Time = 0.61

smoothSolver:  Solving for T, Initial residual = 0.00173952, Final residual = 6.04059e-07, No Iterations 1
ExecutionTime = 0.01 s  ClockTime = 0 s

Time = 0.615

smoothSolver:  Solving for T, Initial residual = 0.00172692, Final residual = 6.00256e-07, No Iterations 1
ExecutionTime = 0.01 s  ClockTime = 0 s

Time = 0.62

smoothSolver:  Solving for T, Initial residual = 0.0017143, Final residual = 5.96425e-07, No Iterations 1
ExecutionTime = 0.01 s  ClockTime = 0 s

Time = 0.625

smoothSolver:  Solving for T, Initial residual = 0.00170191, Final residual = 5.92654e-07, No Iterations 1
ExecutionTime = 0.01 s  ClockTime = 0 s

Time = 0.63

smoothSolver:  Solving for T, Initial residual = 0.00168973, Final residual = 5.88942e-07, No Iterations 1
ExecutionTime = 0.01 s  ClockTime = 0 s

Time = 0.635

smoothSolver:  Solving for T, Initial residual = 0.00167777, Final residual = 5.85288e-07, No Iterations 1
ExecutionTime = 0.01 s  ClockTime = 0 s

Time = 0.64

smoothSolver:  Solving for T, Initial residual = 0.00166601, Final residual = 5.81689e-07, No Iterations 1
ExecutionTime = 0.01 s  ClockTime = 0 s

Time = 0.645

smoothSolver:  Solving for T, Initial residual = 0.00165445, Final residual = 5.78145e-07, No Iterations 1
ExecutionTime = 0.01 s  ClockTime = 0 s

Time = 0.65

smoothSolver:  Solving for T, Initial residual = 0.0016431, Final residual = 5.74655e-07, No Iterations 1
ExecutionTime = 0.01 s  ClockTime = 0 s

Time = 0.655

smoothSolver:  Solving for T, Initial residual = 0.00163193, Final residual = 5.71217e-07, No Iterations 1
ExecutionTime = 0.01 s  ClockTime = 0 s

Time = 0.66

smoothSolver:  Solving for T, Initial residual = 0.00162095, Final residual = 5.6783e-07, No Iterations 1
ExecutionTime = 0.01 s  ClockTime = 0 s

Time = 0.665

smoothSolver:  Solving for T, Initial residual = 0.00161015, Final residual = 5.64494e-07, No Iterations 1
ExecutionTime = 0.01 s  ClockTime = 0 s

Time = 0.67

smoothSolver:  Solving for T, Initial residual = 0.00159953, Final residual = 5.61206e-07, No Iterations 1
ExecutionTime = 0.01 s  ClockTime = 0 s

Time = 0.675

smoothSolver:  Solving for T, Initial residual = 0.00158908, Final residual = 5.57967e-07, No Iterations 1
ExecutionTime = 0.01 s  ClockTime = 0 s

Time = 0.68

smoothSolver:  Solving for T, Initial residual = 0.0015788, Final residual = 5.54775e-07, No Iterations 1
ExecutionTime = 0.01 s  ClockTime = 0 s

Time = 0.685

smoothSolver:  Solving for T, Initial residual = 0.00156869, Final residual = 5.51628e-07, No Iterations 1
ExecutionTime = 0.01 s  ClockTime = 0 s

Time = 0.69

smoothSolver:  Solving for T, Initial residual = 0.00155874, Final residual = 5.48527e-07, No Iterations 1
ExecutionTime = 0.01 s  ClockTime = 0 s

Time = 0.695

smoothSolver:  Solving for T, Initial residual = 0.00154895, Final residual = 5.4547e-07, No Iterations 1
ExecutionTime = 0.01 s  ClockTime = 0 s

Time = 0.7

smoothSolver:  Solving for T, Initial residual = 0.00153931, Final residual = 5.42456e-07, No Iterations 1
ExecutionTime = 0.01 s  ClockTime = 0 s

Time = 0.705

smoothSolver:  Solving for T, Initial residual = 0.00152982, Final residual = 5.39484e-07, No Iterations 1
ExecutionTime = 0.01 s  ClockTime = 0 s

Time = 0.71

smoothSolver:  Solving for T, Initial residual = 0.00152047, Final residual = 5.36554e-07, No Iterations 1
ExecutionTime = 0.01 s  ClockTime = 0 s

Time = 0.715

smoothSolver:  Solving for T, Initial residual = 0.00151127, Final residual = 5.33664e-07, No Iterations 1
ExecutionTime = 0.01 s  ClockTime = 0 s

Time = 0.72

smoothSolver:  Solving for T, Initial residual = 0.00150221, Final residual = 5.30815e-07, No Iterations 1
ExecutionTime = 0.01 s  ClockTime = 0 s

Time = 0.725

smoothSolver:  Solving for T, Initial residual = 0.00149329, Final residual = 5.28004e-07, No Iterations 1
ExecutionTime = 0.01 s  ClockTime = 0 s

Time = 0.73

smoothSolver:  Solving for T, Initial residual = 0.0014845, Final residual = 5.25231e-07, No Iterations 1
ExecutionTime = 0.01 s  ClockTime = 0 s

Time = 0.735

smoothSolver:  Solving for T, Initial residual = 0.00147584, Final residual = 5.22496e-07, No Iterations 1
ExecutionTime = 0.01 s  ClockTime = 0 s

Time = 0.74

smoothSolver:  Solving for T, Initial residual = 0.00146731, Final residual = 5.19797e-07, No Iterations 1
ExecutionTime = 0.01 s  ClockTime = 0 s

Time = 0.745

smoothSolver:  Solving for T, Initial residual = 0.0014589, Final residual = 5.17134e-07, No Iterations 1
ExecutionTime = 0.01 s  ClockTime = 0 s

Time = 0.75

smoothSolver:  Solving for T, Initial residual = 0.00145062, Final residual = 5.14507e-07, No Iterations 1
ExecutionTime = 0.01 s  ClockTime = 0 s

Time = 0.755

smoothSolver:  Solving for T, Initial residual = 0.00144246, Final residual = 5.11914e-07, No Iterations 1
ExecutionTime = 0.01 s  ClockTime = 0 s

Time = 0.76

smoothSolver:  Solving for T, Initial residual = 0.00143441, Final residual = 5.09356e-07, No Iterations 1
ExecutionTime = 0.01 s  ClockTime = 0 s

Time = 0.765

smoothSolver:  Solving for T, Initial residual = 0.00142648, Final residual = 5.0683e-07, No Iterations 1
ExecutionTime = 0.01 s  ClockTime = 0 s

Time = 0.77

smoothSolver:  Solving for T, Initial residual = 0.00141866, Final residual = 5.04337e-07, No Iterations 1
ExecutionTime = 0.01 s  ClockTime = 0 s

Time = 0.775

smoothSolver:  Solving for T, Initial residual = 0.00141095, Final residual = 5.01876e-07, No Iterations 1
ExecutionTime = 0.01 s  ClockTime = 0 s

Time = 0.78

smoothSolver:  Solving for T, Initial residual = 0.00140335, Final residual = 4.99447e-07, No Iterations 1
ExecutionTime = 0.01 s  ClockTime = 0 s

Time = 0.785

smoothSolver:  Solving for T, Initial residual = 0.00139586, Final residual = 4.97048e-07, No Iterations 1
ExecutionTime = 0.01 s  ClockTime = 0 s

Time = 0.79

smoothSolver:  Solving for T, Initial residual = 0.00138846, Final residual = 4.9468e-07, No Iterations 1
ExecutionTime = 0.01 s  ClockTime = 0 s

Time = 0.795

smoothSolver:  Solving for T, Initial residual = 0.00138117, Final residual = 4.92341e-07, No Iterations 1
ExecutionTime = 0.01 s  ClockTime = 0 s

Time = 0.8

smoothSolver:  Solving for T, Initial residual = 0.00137398, Final residual = 4.90031e-07, No Iterations 1
ExecutionTime = 0.01 s  ClockTime = 0 s

Time = 0.805

smoothSolver:  Solving for T, Initial residual = 0.00136689, Final residual = 4.8775e-07, No Iterations 1
ExecutionTime = 0.01 s  ClockTime = 0 s

Time = 0.81

smoothSolver:  Solving for T, Initial residual = 0.00135989, Final residual = 4.85497e-07, No Iterations 1
ExecutionTime = 0.01 s  ClockTime = 0 s

Time = 0.815

smoothSolver:  Solving for T, Initial residual = 0.00135298, Final residual = 4.83272e-07, No Iterations 1
ExecutionTime = 0.01 s  ClockTime = 0 s

Time = 0.82

smoothSolver:  Solving for T, Initial residual = 0.00134616, Final residual = 4.81074e-07, No Iterations 1
ExecutionTime = 0.01 s  ClockTime = 0 s

Time = 0.825

smoothSolver:  Solving for T, Initial residual = 0.00133944, Final residual = 4.78902e-07, No Iterations 1
ExecutionTime = 0.01 s  ClockTime = 0 s

Time = 0.83

smoothSolver:  Solving for T, Initial residual = 0.0013328, Final residual = 4.76757e-07, No Iterations 1
ExecutionTime = 0.01 s  ClockTime = 0 s

Time = 0.835

smoothSolver:  Solving for T, Initial residual = 0.00132625, Final residual = 4.74637e-07, No Iterations 1
ExecutionTime = 0.01 s  ClockTime = 0 s

Time = 0.84

smoothSolver:  Solving for T, Initial residual = 0.00131978, Final residual = 4.72543e-07, No Iterations 1
ExecutionTime = 0.01 s  ClockTime = 0 s

Time = 0.845

smoothSolver:  Solving for T, Initial residual = 0.0013134, Final residual = 4.70473e-07, No Iterations 1
ExecutionTime = 0.01 s  ClockTime = 0 s

Time = 0.85

smoothSolver:  Solving for T, Initial residual = 0.00130709, Final residual = 4.68427e-07, No Iterations 1
ExecutionTime = 0.01 s  ClockTime = 0 s

Time = 0.855

smoothSolver:  Solving for T, Initial residual = 0.00130087, Final residual = 4.66406e-07, No Iterations 1
ExecutionTime = 0.01 s  ClockTime = 0 s

Time = 0.86

smoothSolver:  Solving for T, Initial residual = 0.00129472, Final residual = 4.64408e-07, No Iterations 1
ExecutionTime = 0.01 s  ClockTime = 0 s

Time = 0.865

smoothSolver:  Solving for T, Initial residual = 0.00128866, Final residual = 4.62433e-07, No Iterations 1
ExecutionTime = 0.01 s  ClockTime = 0 s

Time = 0.87

smoothSolver:  Solving for T, Initial residual = 0.00128266, Final residual = 4.60481e-07, No Iterations 1
ExecutionTime = 0.01 s  ClockTime = 0 s

Time = 0.875

smoothSolver:  Solving for T, Initial residual = 0.00127675, Final residual = 4.58551e-07, No Iterations 1
ExecutionTime = 0.01 s  ClockTime = 0 s

Time = 0.88

smoothSolver:  Solving for T, Initial residual = 0.0012709, Final residual = 4.56643e-07, No Iterations 1
ExecutionTime = 0.01 s  ClockTime = 0 s

Time = 0.885

smoothSolver:  Solving for T, Initial residual = 0.00126512, Final residual = 4.54757e-07, No Iterations 1
ExecutionTime = 0.01 s  ClockTime = 0 s

Time = 0.89

smoothSolver:  Solving for T, Initial residual = 0.00125942, Final residual = 4.52892e-07, No Iterations 1
ExecutionTime = 0.01 s  ClockTime = 0 s

Time = 0.895

smoothSolver:  Solving for T, Initial residual = 0.00125378, Final residual = 4.51047e-07, No Iterations 1
ExecutionTime = 0.01 s  ClockTime = 0 s

Time = 0.9

smoothSolver:  Solving for T, Initial residual = 0.00124822, Final residual = 4.49224e-07, No Iterations 1
ExecutionTime = 0.01 s  ClockTime = 0 s

Time = 0.905

smoothSolver:  Solving for T, Initial residual = 0.00124271, Final residual = 4.4742e-07, No Iterations 1
ExecutionTime = 0.01 s  ClockTime = 0 s

Time = 0.91

smoothSolver:  Solving for T, Initial residual = 0.00123728, Final residual = 4.45636e-07, No Iterations 1
ExecutionTime = 0.01 s  ClockTime = 0 s

Time = 0.915

smoothSolver:  Solving for T, Initial residual = 0.0012319, Final residual = 4.43872e-07, No Iterations 1
ExecutionTime = 0.01 s  ClockTime = 0 s

Time = 0.92

smoothSolver:  Solving for T, Initial residual = 0.00122659, Final residual = 4.42127e-07, No Iterations 1
ExecutionTime = 0.01 s  ClockTime = 0 s

Time = 0.925

smoothSolver:  Solving for T, Initial residual = 0.00122134, Final residual = 4.40401e-07, No Iterations 1
ExecutionTime = 0.01 s  ClockTime = 0 s

Time = 0.93

smoothSolver:  Solving for T, Initial residual = 0.00121616, Final residual = 4.38694e-07, No Iterations 1
ExecutionTime = 0.01 s  ClockTime = 0 s

Time = 0.935

smoothSolver:  Solving for T, Initial residual = 0.00121103, Final residual = 4.37005e-07, No Iterations 1
ExecutionTime = 0.01 s  ClockTime = 0 s

Time = 0.94

smoothSolver:  Solving for T, Initial residual = 0.00120596, Final residual = 4.35334e-07, No Iterations 1
ExecutionTime = 0.01 s  ClockTime = 0 s

Time = 0.945

smoothSolver:  Solving for T, Initial residual = 0.00120095, Final residual = 4.33681e-07, No Iterations 1
ExecutionTime = 0.01 s  ClockTime = 0 s

Time = 0.95

smoothSolver:  Solving for T, Initial residual = 0.00119599, Final residual = 4.32045e-07, No Iterations 1
ExecutionTime = 0.01 s  ClockTime = 0 s

Time = 0.955

smoothSolver:  Solving for T, Initial residual = 0.00119109, Final residual = 4.30426e-07, No Iterations 1
ExecutionTime = 0.01 s  ClockTime = 0 s

Time = 0.96

smoothSolver:  Solving for T, Initial residual = 0.00118625, Final residual = 4.28824e-07, No Iterations 1
ExecutionTime = 0.01 s  ClockTime = 0 s

Time = 0.965

smoothSolver:  Solving for T, Initial residual = 0.00118146, Final residual = 4.27239e-07, No Iterations 1
ExecutionTime = 0.01 s  ClockTime = 0 s

Time = 0.97

smoothSolver:  Solving for T, Initial residual = 0.00117672, Final residual = 4.25671e-07, No Iterations 1
ExecutionTime = 0.01 s  ClockTime = 0 s

Time = 0.975

smoothSolver:  Solving for T, Initial residual = 0.00117204, Final residual = 4.24118e-07, No Iterations 1
ExecutionTime = 0.01 s  ClockTime = 0 s

Time = 0.98

smoothSolver:  Solving for T, Initial residual = 0.0011674, Final residual = 4.22581e-07, No Iterations 1
ExecutionTime = 0.01 s  ClockTime = 0 s

Time = 0.985

smoothSolver:  Solving for T, Initial residual = 0.00116282, Final residual = 4.2106e-07, No Iterations 1
ExecutionTime = 0.01 s  ClockTime = 0 s

Time = 0.99

smoothSolver:  Solving for T, Initial residual = 0.00115829, Final residual = 4.19555e-07, No Iterations 1
ExecutionTime = 0.01 s  ClockTime = 0 s

Time = 0.995

smoothSolver:  Solving for T, Initial residual = 0.0011538, Final residual = 4.18065e-07, No Iterations 1
ExecutionTime = 0.01 s  ClockTime = 0 s

Time = 1

smoothSolver:  Solving for T, Initial residual = 0.00114936, Final residual = 4.16589e-07, No Iterations 1
ExecutionTime = 0.01 s  ClockTime = 0 s

End

